%nproc=24
%mem=64GB
#P PBE1PBE/6-31+G(d,p) opt int=(grid=99590) freq EmpiricalDispersion=GD3

solv sp

0 1
C              -14.742603           -1.794440           -0.861282
C              -13.551895           -0.895435           -1.037773
N              -13.791602            0.409986           -1.331070
C              -12.702935            1.288990           -1.725910
C              -11.637715            1.416496           -0.640005
N              -12.043458            1.370711            0.644593
C              -11.087822            1.488551            1.730304
C              -10.067846            0.345052            1.740262
N              -10.500475           -0.869161            1.345332
C               -9.577856           -1.987314            1.263522
C               -8.551714           -1.794436            0.144664
N               -8.999596           -1.245247           -1.001214
C               -8.078202           -0.915553           -2.071938
C               -7.044825            0.123445           -1.621743
N               -7.500081            1.135086           -0.861041
C               -6.592979            2.144617           -0.351629
C               -5.548286            1.530562            0.585286
N               -5.994519            0.624667            1.471244
C               -5.075636           -0.043024            2.371671
C               -4.042106           -0.867419            1.598786
N               -4.494802           -1.547677            0.533116
C               -3.590045           -2.328301           -0.285984
C               -2.528705           -1.442908           -0.945605
N               -2.952941           -0.270990           -1.444281
C               -2.021205            0.659709           -2.047427
C               -0.986556            1.153501           -1.031473
N               -1.447403            1.460349            0.191202
C               -0.542848            1.896708            1.235066
C                0.479214            0.809098            1.576465
N                0.015155           -0.448123            1.647631
C                0.914944           -1.552602            1.907867
C                1.959284           -1.690550            0.796241
N                1.513765           -1.559701           -0.463585
C                2.432194           -1.623146           -1.581559
C                3.481047           -0.510169           -1.502380
N                3.037483            0.694962           -1.117669
C                3.947822            1.809901           -0.971768
C                4.979469            1.554386            0.127175
N                4.538831            1.030867            1.278367
C                5.466811            0.734781            2.352059
C                6.432149           -0.394656            1.985983
N                5.985314           -1.312532            1.119102
C                6.798549           -2.435622            0.714212
C                7.877100           -2.054051           -0.304217
N                7.525504           -1.212163           -1.284434
C                8.422744           -0.919055           -2.386874
C                8.904633            0.531117           -2.454783
N                8.049036            1.491466           -2.108476
O              -12.395950           -1.305278           -0.908110
C              -13.239669            2.664370           -2.104068
O              -10.461275            1.587148           -0.954012
C              -11.809404            1.566351            3.069197
O               -8.927071            0.552018            2.150730
C              -10.337860           -3.296351            1.089172
O               -7.382869           -2.144959            0.301500
C               -8.843371           -0.431083           -3.296468
O               -5.867094            0.020364           -1.964981
C               -7.375000            3.243132            0.358078
O               -4.368417            1.879993            0.520175
C               -5.845840           -0.924862            3.346812
O               -2.866397           -0.902923            1.968585
C               -4.373405           -3.103460           -1.338648
O               -1.357987           -1.823507           -1.025270
C               -2.775233            1.833207           -2.660825
O                0.197542            1.279027           -1.355209
C               -1.329455            2.304901            2.474560
O                1.658786            1.102696            1.788504
C                0.124530           -2.844972            2.071529
O                3.139184           -1.927774            1.067650
C                1.662929           -1.542112           -2.894709
O                4.659694           -0.731438           -1.801554
C                3.175066            3.092656           -0.686469
O                6.167201            1.843401           -0.055655
C                4.702304            0.371232            3.620210
O                7.550132           -0.453315            2.515123
C                5.920238           -3.541452            0.135001
O                9.001044           -2.569488           -0.212859
O               10.030226            0.764361           -2.928274
H              -14.625318           -2.361710            0.064829
H              -14.736676            0.698658           -1.540307
H              -12.171567            0.849594           -2.578529
H              -13.018827            1.201555            0.846243
H              -10.491968            2.393600            1.573596
H              -11.380119           -0.947446            0.845500
H               -8.987484           -2.008576            2.183852
H               -9.962709           -0.940608           -1.068789
H               -7.489774           -1.805418           -2.317189
H               -8.493910            1.218676           -0.671489
H               -6.013215            2.561946           -1.181966
H               -6.988851            0.428660            1.543711
H               -4.488829            0.706311            2.914460
H               -5.485462           -1.535275            0.305464
H               -3.024197           -3.015036            0.353040
H               -3.939774           -0.029376           -1.403822
H               -1.435913            0.139000           -2.813246
H               -2.442775            1.393741            0.390670
H                0.055294            2.737603            0.866988
H               -0.978339           -0.631962            1.525912
H                1.495891           -1.341043            2.812420
H                0.521242           -1.421180           -0.642527
H                3.004851           -2.556051           -1.531024
H                2.043993            0.839373           -0.947724
H                4.537057            1.916710           -1.889487
H                3.543550            0.860255            1.414021
H                6.099804            1.611263            2.530489
H                5.006968           -1.295077            0.841500
H                7.346627           -2.810653            1.584601
H                6.544137           -0.943300           -1.357657
H                9.319633           -1.521707           -2.233067
C                7.770726           -1.289452           -3.719546
H                7.249236            1.282909           -1.516308
H               -9.631717           -4.125792            1.004681
H              -10.979295           -3.476977            1.956655
H              -10.959614           -3.271193            0.188886
H               -8.143539           -0.182293           -4.097692
H               -9.515220           -1.215950           -3.657271
H               -9.430605            0.461462           -3.056470
H              -12.412484            3.316380           -2.392906
H              -13.922669            2.589994           -2.955961
H              -13.768021            3.129833           -1.265580
H               -6.687641            4.004637            0.734071
H               -8.075419            3.719075           -0.334925
H               -7.935460            2.830502            1.203533
H              -11.079018            1.652686            3.876461
H              -12.462692            2.443303            3.103366
H              -12.408359            0.666674            3.248168
H               -5.149199           -1.423064            4.025223
H               -6.539692           -0.320394            3.938183
H               -6.415763           -1.686881            2.805367
H               -3.687044           -3.690643           -1.953540
H               -5.083584           -3.782647           -0.858136
H               -4.927907           -2.415786           -1.985160
H                3.871646            3.927359           -0.575880
H                2.489544            3.309809           -1.510729
H                2.594674            2.989767            0.235505
H               -0.642001            2.632346            3.258281
H               -2.009039            3.128245            2.236088
H               -1.917907            1.460596            2.847723
H                2.358717           -1.590019           -3.736109
H                0.958943           -2.375880           -2.971589
H                1.102059           -0.603714           -2.948931
H                5.407826            0.145254            4.422973
H                4.070746            1.208316            3.929889
H                4.067667           -0.503566            3.444507
H                0.807536           -3.675118            2.268186
H               -0.573100           -2.756939            2.909492
H               -0.445653           -3.061396            1.162502
H                6.540911           -4.390384           -0.162246
H                5.193461           -3.871559            0.881810
H                5.374802           -3.174612           -0.740210
H               -2.067740            2.530961           -3.115347
H               -3.464192            1.477765           -3.432602
H               -3.350140            2.360777           -1.893113
H                8.445460           -1.047914           -4.545022
H                7.553646           -2.361256           -3.742665
H                6.833420           -0.740395           -3.855457
H              -14.753148           -2.515717           -1.684067
H              -15.696557           -1.262495           -0.844620
O               11.799960           -2.977428           -0.911470
H               12.018221           -2.257433           -1.556424
H               10.835928           -2.967255           -0.840116
C                8.336839            2.899886           -2.310499
H                8.886352            3.348997           -1.478878
H                8.930295            3.015080           -3.219636
H                7.388945            3.430946           -2.421360
O               11.206234            0.788637            1.542709
H               12.170765            0.683736            1.661973
H               10.852578           -0.120579            1.635046
O               11.364733            2.253705           -0.797486
H               10.919871            1.860807           -1.567251
H               11.155935            1.678794           -0.032076
O                7.904129            3.680017            1.461191
H                7.381248            3.085305            0.907811
H                8.357899            3.092888            2.105326
O               10.069729            4.798189           -0.061432
H               10.626951            4.026635           -0.246475
H                9.359071            4.474839            0.520985
O               12.816796           -2.462096            1.531518
H               12.506114           -2.699741            0.619311
H               12.002109           -2.354979            2.044425
O                9.127162            1.856808            3.107052
H                8.576946            1.061198            3.024707
H                9.964875            1.627457            2.660563
O               13.812165            0.897654           -1.214824
H               13.964430            0.548758           -0.319449
H               13.100535            1.554677           -1.098546
O               10.105075           -1.697799            2.129514
H                9.284079           -1.382350            2.539741
H                9.793979           -2.125104            1.306995
O               12.326318           -0.949132           -2.613875
H               12.945827           -0.328469           -2.166127
H               11.549679           -0.408413           -2.835473
O               13.844413           -0.069249            1.453609
H               13.546927           -1.027428            1.483422
H               14.596585            0.017154            2.044274

