%nproc=24
%mem=64GB
#P PBE1PBE/6-31+G(d,p) opt freq  int=(grid=99590) scrf=(cpcm, solvent=water) EmpiricalDispersion=GD3

solv sp

0 1
C              -14.300814           -2.071043           -0.743010
C              -13.160196           -1.148282           -1.053063
N              -13.461775            0.102909           -1.453146
C              -12.427541            1.012166           -1.905729
C              -11.391835            1.289306           -0.820764
N              -11.819461            1.334956            0.452292
C              -10.893429            1.593739            1.536009
C               -9.871684            0.465093            1.689287
N              -10.302616           -0.779022            1.426609
C               -9.396843           -1.908135            1.464641
C               -8.378033           -1.834948            0.327654
N               -8.833975           -1.436675           -0.869590
C               -7.921575           -1.244163           -1.977836
C               -6.900701           -0.151149           -1.652924
N               -7.373532            0.948958           -1.049915
C               -6.489020            2.033510           -0.679204
C               -5.467741            1.577634            0.362815
N               -5.920533            0.793754            1.350768
C               -5.014936            0.279456            2.356658
C               -3.949436           -0.619177            1.727678
N               -4.358626           -1.461060            0.770024
C               -3.416547           -2.327305            0.093496
C               -2.384353           -1.513307           -0.687105
N               -2.841869           -0.452140           -1.363208
C               -1.933708            0.410146           -2.088811
C               -0.951077            1.093449           -1.137909
N               -1.445784            1.540199            0.022760
C               -0.582879            2.164143            1.004020
C                0.471015            1.180100            1.513539
N                0.053055           -0.064944            1.773743
C                0.988401           -1.078575            2.211121
C                2.050496           -1.334378            1.143320
N                1.631793           -1.406480           -0.126320
C                2.580700           -1.610028           -1.199612
C                3.540741           -0.428506           -1.311708
N                3.030482            0.790917           -1.150794
C                3.885252            1.958864           -1.190758
C                4.944217            1.897945           -0.089445
N                4.532020            1.505255            1.123912
C                5.452155            1.451042            2.238733
C                6.440995            0.289397            2.132453
N                5.964062           -0.865494            1.660053
C                6.757299           -2.077660            1.638951
C                7.660972           -2.171301            0.408043
N                7.111500           -1.882550           -0.767863
C                7.846480           -1.932861           -2.018063
C                8.290633           -0.543184           -2.481663
N                7.379575            0.421470           -2.480512
O              -11.979046           -1.507554           -0.935527
C              -13.042722            2.314149           -2.402835
O              -10.213709            1.492526           -1.126475
C              -11.646303            1.818591            2.840051
O               -8.724514            0.709741            2.076125
C              -10.172387           -3.219194            1.431618
O               -7.194505           -2.131759            0.523870
C               -8.694572           -0.914817           -3.248107
O               -5.709847           -0.291083           -1.953771
C               -7.295761            3.219967           -0.166600
O               -4.286225            1.935051            0.282823
C               -5.790069           -0.469475            3.433044
O               -2.776165           -0.567405            2.117158
C               -4.154264           -3.293857           -0.824344
O               -1.192745           -1.848348           -0.692131
C               -2.713510            1.439003           -2.897360
O                0.236586            1.232754           -1.458565
C               -1.410133            2.720149            2.155983
O                1.642718            1.542320            1.683470
C                0.251981           -2.363896            2.565846
O                3.236410           -1.486726            1.462736
C                1.852980           -1.839862           -2.518521
O                4.744665           -0.615439           -1.561897
C                3.054931            3.230700           -1.072745
O                6.112817            2.220381           -0.329327
C                4.679764            1.347371            3.549990
O                7.608169            0.432107            2.538909
C                5.861675           -3.309399            1.722657
O                8.841475           -2.545773            0.541687
O                9.459182           -0.366608           -2.888221
H              -14.138705           -2.507778            0.245338
H              -14.428961            0.361254           -1.586838
H              -11.861259            0.537731           -2.714910
H              -12.796905            1.170730            0.654295
H              -10.302581            2.480513            1.285984
H              -11.194786           -0.903739            0.961129
H               -8.804873           -1.840744            2.381416
H               -9.824590           -1.247214           -0.998970
H               -7.328069           -2.153127           -2.118488
H               -8.376067            1.055607           -0.904243
H               -5.891353            2.327155           -1.548394
H               -6.914866            0.585480            1.425280
H               -4.455279            1.110010            2.799584
H               -5.346521           -1.514730            0.525117
H               -2.834057           -2.879620            0.838163
H               -3.841388           -0.253032           -1.385912
H               -1.307217           -0.197632           -2.749903
H               -2.443703            1.458412            0.216658
H               -0.011459            2.965750            0.524718
H               -0.935269           -0.302853            1.688710
H                1.546994           -0.708464            3.077418
H                0.636562           -1.340169           -0.341926
H                3.216200           -2.469824           -0.962764
H                2.023206            0.914739           -1.033200
H                4.448695            1.966010           -2.129494
H                3.541996            1.318902            1.286542
H                6.065980            2.356707            2.237688
H                4.968328           -0.937268            1.438222
H                7.432889           -2.062598            2.498356
H                6.137232           -1.576305           -0.809551
H                8.763915           -2.492735           -1.831944
C                7.022920           -2.626647           -3.100005
H                6.451257            0.234407           -2.105475
H               -9.478354           -4.063030            1.445453
H              -10.821317           -3.288764            2.308707
H              -10.788987           -3.281499            0.530376
H               -8.001249           -0.766276           -4.079294
H               -9.367137           -1.738805           -3.501849
H               -9.284869           -0.003402           -3.114238
H              -12.253849            2.988330           -2.743310
H              -13.710518            2.115273           -3.245480
H              -13.609457            2.812430           -1.610584
H               -6.623443            4.033273            0.116722
H               -7.969906            3.581264           -0.947463
H               -7.889858            2.933667            0.706544
H              -10.937170            2.013937            3.647481
H              -12.309370            2.682579            2.745453
H              -12.242108            0.940340            3.107293
H               -5.100021           -0.859504            4.185073
H               -6.497661            0.203627            3.923666
H               -6.345287           -1.304518            2.995618
H               -3.438225           -3.937084           -1.341553
H               -4.830513           -3.922989           -0.239976
H               -4.740412           -2.744906           -1.567283
H                3.710432            4.104641           -1.093920
H                2.354429            3.298675           -1.908856
H                2.487743            3.231147           -0.137733
H               -0.753198            3.176686            2.900249
H               -2.101991            3.481809            1.787223
H               -1.987717            1.922914            2.633328
H                2.577259           -1.978175           -3.324811
H                1.231272           -2.736048           -2.449813
H                1.213281           -0.985206           -2.757645
H                5.374678            1.297135            4.391386
H                4.043167            2.226925            3.674502
H                4.049043            0.453377            3.558094
H                0.966659           -3.127809            2.881503
H               -0.447582           -2.180206            3.385260
H               -0.308036           -2.735135            1.702556
H                6.474796           -4.213530            1.702455
H                5.293890           -3.289200            2.655745
H                5.154686           -3.342526            0.889405
H               -2.022049            2.096180           -3.430186
H               -3.350579            0.935819           -3.629171
H               -3.344460            2.044913           -2.240381
H                7.578391           -2.641624           -4.041518
H                6.816806           -3.657240           -2.799712
H                6.072913           -2.109099           -3.258782
H              -14.292971           -2.886334           -1.472121
H              -15.274030           -1.578223           -0.769966
O               11.460850           -3.258940           -0.216622
H               11.624701           -2.753572           -1.050996
H               10.510948           -3.145810           -0.048090
C                7.653863            1.752183           -2.980640
H                8.055441            2.395572           -2.194631
H                8.370382            1.690937           -3.801791
H                6.723334            2.189652           -3.344074
O               11.106473            1.165406            1.031349
H               12.077861            1.054929            1.075687
H               10.744965            0.333878            1.418165
O               10.925288            1.707057           -1.631496
H               10.353549            1.080785           -2.113471
H               10.854650            1.464763           -0.679547
O                7.988163            4.160613            0.366202
H                7.280356            3.540387            0.116460
H                8.450839            3.702519            1.103579
O                9.930960            4.361732           -1.605468
H               10.283613            3.454683           -1.661323
H                9.227566            4.318485           -0.924229
O               12.682259           -2.016611            1.851021
H               12.279400           -2.504212            1.087950
H               11.922502           -1.698861            2.362487
O                9.212458            2.730847            2.351268
H                8.589838            1.993684            2.503599
H                9.995372            2.305295            1.950815
O               13.357654            0.344074           -1.862555
H               13.601572            0.278675           -0.917253
H               12.606893            0.971781           -1.874130
O               10.042793           -0.957207            2.370420
H                9.241926           -0.495141            2.678817
H                9.679329           -1.622298            1.746623
O               11.801025           -1.831970           -2.478451
H               12.423317           -1.095260           -2.280516
H               10.942220           -1.397634           -2.649453
O               13.701517            0.233588            0.896334
H               13.439207           -0.649510            1.274422
H               14.507498            0.512616            1.342166

