%nproc=24
%mem=64GB
#P PBE1PBE/6-31+G(d,p) opt int=(grid=99590) freq EmpiricalDispersion=GD3

solv sp

0 1
O               11.346743           -1.437296            2.110158
H               10.510279           -1.136265            2.503116
H               11.059650           -1.994638            1.363230
O                8.765254           -0.310732            2.560471
H               11.965931            0.130659            1.438526
H               13.300543           -1.957821            2.064071
O               10.201798           -2.652660           -0.092519
C                7.634991           -0.319563            2.054352
H                9.735516            1.292776            2.939905
O               12.263707            1.050574            1.279081
O               14.101736           -2.043463            1.526708
C                9.107332           -2.071875           -0.162503
H               12.051392           -2.801701           -0.742761
C                6.629889            0.780787            2.401128
N                7.204267           -1.288234            1.236428
O               10.269562            2.103379            2.958943
H               13.233203            1.016144            1.399603
H               11.072587            1.881302            2.449925
H               12.152491            1.886528           -0.319669
H               13.767989           -2.338815            0.640196
H               14.734209           -0.569672            1.363315
C                8.038601           -2.411066            0.878286
N                8.784565           -1.200139           -1.125670
O               13.010199           -2.720428           -0.840435
C                5.863717            0.403689            3.663956
N                5.703843            1.029670            1.314252
H                7.231350            1.679351            2.576633
H                6.222098           -1.310637            0.970658
H                9.406569            3.312920            1.978053
O               14.961195            0.401991            1.253184
O               12.331814            2.458204           -1.095588
C                7.180976           -3.560924            0.356884
H                8.598729           -2.735196            1.761819
C                9.686134           -0.949733           -2.235152
H                7.806930           -0.918859           -1.203532
H               13.152844           -2.035593           -1.539844
H                5.266547           -0.498020            3.493706
H                5.194072            1.218530            3.952598
H                6.566912            0.219104            4.479370
C                6.152460            1.513260            0.150423
H                4.708308            0.857392            1.450226
O                8.900207            3.851580            1.332445
H               15.030170            0.912016           -0.556448
H               15.694378            0.595626            1.842139
H               11.909994            2.029981           -1.857743
H               11.463257            4.180012           -0.615645
H               14.108062            1.837257           -1.370424
H                6.455617           -3.862206            1.116971
H                6.633211           -3.250304           -0.538312
H                7.819514           -4.411875            0.108078
C                9.175471           -1.614683           -3.515382
C                9.975740            0.520693           -2.522119
H               10.646559           -1.388958           -1.960363
O               13.362177           -0.780731           -2.688569
C                5.135638            1.717451           -0.971139
O                7.343137            1.797416           -0.026068
H                8.407691            3.198683            0.816319
H               10.219491            4.622279            0.199049
O               14.841665            1.201112           -1.466342
O               11.016814            0.795686           -3.145676
O               10.848098            4.918264           -0.484148
H                8.183421           -1.232252           -3.776972
H                9.106924           -2.695824           -3.364995
H                9.865433           -1.414586           -4.338822
N                9.070485            1.436375           -2.185881
H               12.578461           -0.278723           -2.970274
H               13.974337           -0.109765           -2.309421
C                4.344425            3.001391           -0.750919
N                4.241662            0.585690           -1.081185
H                5.739047            1.791950           -1.882677
C                9.200337            2.831134           -2.567727
H                8.359246            1.236027           -1.486671
H                3.753495            2.931299            0.167354
H                3.666397            3.173224           -1.591639
H                5.029508            3.848925           -0.667992
C                4.714001           -0.631764           -1.383455
H                3.242028            0.727378           -0.945797
H                9.723593            3.430416           -1.815706
H                8.198002            3.244707           -2.704431
H                9.751272            2.889589           -3.508125
C                3.686233           -1.765895           -1.422335
O                5.904088           -0.849531           -1.635382
C                2.934847           -1.769310           -2.748249
N                2.751724           -1.661773           -0.321405
H                4.276928           -2.681993           -1.313591
H                2.359354           -0.845178           -2.861235
H                2.244765           -2.616946           -2.788692
H                3.643773           -1.850481           -3.576076
C                3.184474           -1.722511            0.947664
H                1.759572           -1.543792           -0.519232
C                2.128036           -1.541317            2.040545
O                4.365221           -1.925913            1.243311
C                1.348848           -2.832160            2.262440
N                1.219721           -0.462134            1.715771
H                2.699824           -1.277568            2.936820
H                0.792332           -3.101062            1.359125
H                0.638743           -2.707288            3.084923
H                2.037953           -3.643430            2.510423
C                1.668500            0.795518            1.589180
H                0.228664           -0.664115            1.598201
C                0.637114            1.850884            1.183849
O                2.842538            1.114771            1.797313
C               -0.160712            2.319375            2.394861
N               -0.257298            1.346560            0.163229
H                1.230005            2.674904            0.772465
H               -0.737828            1.489341            2.814549
H               -0.853322            3.114820            2.105479
H                0.518873            2.703039            3.159874
C                0.212122            0.981532           -1.039063
H               -1.254494            1.288219            0.360534
C               -0.809700            0.416869           -2.029097
O                1.397682            1.099180           -1.362007
C               -1.582637            1.541505           -2.707654
N               -1.726539           -0.494137           -1.376910
H               -0.210627           -0.134312           -2.761972
H               -2.166225            2.101120           -1.969867
H               -2.266904            1.131335           -3.455893
H               -0.886539            2.223952           -3.201654
C               -1.280584           -1.624540           -0.808500
H               -2.721438           -0.278020           -1.368757
C               -2.326322           -2.490976           -0.101888
O               -0.099012           -1.978949           -0.852397
C               -3.087355           -3.347481           -1.106719
N               -3.251582           -1.680571            0.661806
H               -1.747904           -3.122493            0.581081
H               -3.651962           -2.713109           -1.797241
H               -3.787772           -4.006920           -0.586214
H               -2.385644           -3.959254           -1.679120
C               -2.819290           -0.929137            1.685876
H               -4.240573           -1.694262            0.421031
C               -3.868796           -0.065830            2.390950
O               -1.646050           -0.925122            2.068383
C               -4.662208           -0.891877            3.396181
N               -4.765465            0.554936            1.438755
H               -3.290187            0.710520            2.902993
H               -5.227020           -1.676313            2.882624
H               -5.364881           -0.252684            3.938492
H               -3.981381           -1.356127            4.113986
C               -4.301259            1.423570            0.527288
H               -5.757178            0.329747            1.469077
C               -5.321724            1.980735           -0.468281
O               -3.122397            1.784868            0.483011
C               -6.106028            3.131845            0.150065
N               -6.228646            0.949372           -0.925741
H               -4.720449            2.335801           -1.312178
H               -6.693731            2.776999            1.002615
H               -6.786923            3.564377           -0.588616
H               -5.416933            3.908064            0.491869
C               -5.771199           -0.112615           -1.607197
H               -7.223771            1.042504           -0.736477
C               -6.807403           -1.168323           -2.000948
O               -4.586931           -0.246425           -1.925665
C               -7.562115           -0.742675           -3.254517
N               -7.738202           -1.419847           -0.919931
H               -6.222001           -2.073679           -2.194558
H               -8.126943            0.175695           -3.065869
H               -8.260862           -1.526892           -3.559341
H               -6.855716           -0.563261           -4.068741
C               -7.304034           -1.914456            0.248978
H               -8.732055           -1.254002           -1.069255
C               -8.355655           -2.116068            1.343266
O               -6.126217           -2.218187            0.455049
C               -9.123626           -3.412946            1.117831
N               -9.274725           -0.997465            1.403043
H               -7.779375           -2.165711            2.273452
H               -9.709059           -3.356820            0.194615
H               -9.803016           -3.603333            1.954075
H               -8.424580           -4.249660            1.044957
C               -8.829828            0.240491            1.669065
H              -10.269653           -1.162206            1.260830
C               -9.866549            1.368906            1.618630
O               -7.655249            0.488424            1.949847
O              -12.173162           -1.585669            1.718612
C              -10.642029            1.459670            2.925862
N              -10.767575            1.216922            0.493144
H               -9.270462            2.275611            1.472086
H              -12.811365           -0.846467            1.628453
H              -12.376375           -2.032964            2.543982
H              -11.234990            0.555743            3.093544
H              -11.314389            2.322958            2.905172
H               -9.946017            1.582131            3.759382
C              -10.280731            1.301556           -0.758017
H              -11.752025            1.004848            0.655773
O              -13.592660            0.673249            1.234899
C              -11.264447            1.107389           -1.912107
O               -9.100869            1.568333           -0.993876
H              -13.953213            1.243042            1.937173
H              -14.211706            0.700959            0.474946
C              -12.005139            2.408439           -2.201510
N              -12.208701            0.036194           -1.681456
H              -10.627525            0.844242           -2.763664
O              -14.534613            2.318196            3.285378
O              -15.004306            0.694357           -1.097426
H              -12.627605            2.295900           -3.094790
H              -12.646081            2.692594           -1.360249
H              -11.287573            3.212976           -2.379667
C              -11.783353           -1.239626           -1.553184
H              -13.203222            0.249497           -1.632211
H              -13.992877            3.022367            3.654333
H              -15.089873            2.000626            4.003750
H              -15.631351           -0.015675           -1.327275
H              -15.373484            1.537720           -1.418181
C              -12.838058           -2.298207           -1.386833
O              -10.580856           -1.520437           -1.558009
O              -16.484173           -1.545292           -1.760731
O              -15.907456            3.146061           -2.007082
H              -13.852417           -1.938371           -1.575248
H              -12.773205           -2.667895           -0.359187
H              -12.607662           -3.124177           -2.063737
H              -16.807484           -1.736430           -2.646502
H              -17.048893           -2.032454           -1.153097
H              -15.551829            3.617692           -2.766011
H              -16.434354            3.778419           -1.509996

