%nproc=24
%mem=64GB
#P PBE1PBE/6-31+G(d,p) opt freq  int=(grid=99590) scrf=(cpcm, solvent=water) EmpiricalDispersion=GD3

solv sp

0 1
C	14.9830240	-2.1592010	0.5435280
C	13.8054910	-1.2656200	0.8696990
N	14.0870770	-0.0676930	1.4663500
C	13.0240630	0.7534480	2.0527370
C	11.9645880	1.1693760	1.0208310
N	12.3947070	1.4678460	-0.2305800
C	11.4607150	1.8876600	-1.2736750
C	10.4234160	0.7981740	-1.6154840
N	10.8563680	-0.4893230	-1.5978310
C	9.9304100	-1.5935140	-1.8465520
C	8.8793470	-1.7313160	-0.7293330
N	9.3248550	-1.6164750	0.5461760
C	8.3907560	-1.6454170	1.6688350
C	7.3475540	-0.5122630	1.5742350
N	7.8077780	0.7177900	1.2446640
C	6.8917110	1.8473950	1.1087720
C	5.8485380	1.6147730	-0.0017220
N	6.2981610	1.1141320	-1.1752150
C	5.3717110	0.8347210	-2.2688040
C	4.3119910	-0.2124460	-1.8717720
N	4.7489810	-1.3057280	-1.2065560
C	3.8113800	-2.3346530	-0.7668570
C	2.7697690	-1.7813700	0.2256870
N	3.2290020	-0.9698110	1.2042170
C	2.3103780	-0.3656470	2.1629040
C	1.2769420	0.5467690	1.4734500
N	1.7403970	1.3980590	0.5319610
C	0.8271070	2.2765270	-0.1926210
C	-0.2217530	1.4823180	-0.9948660
N	0.2228070	0.4172860	-1.6986310
C	-0.7085720	-0.4166030	-2.4497860
C	-1.7682210	-1.0594730	-1.5340980
N	-1.3309650	-1.6182110	-0.3837140
C	-2.2770300	-2.2094960	0.5567660
C	-3.2955460	-1.1750440	1.0751520
N	-2.8076610	0.0282540	1.4367820
C	-3.6921920	1.0871630	1.9094940
C	-4.7418060	1.4870110	0.8544720
N	-4.3134370	1.6766760	-0.4085840
C	-5.2384390	2.0678350	-1.4709490
C	-6.2427810	0.9540910	-1.8088280
N	-5.8014940	-0.3187250	-1.7392800
C	-6.6525170	-1.4472050	-2.0903990
C	-7.6852670	-1.8011670	-0.9995040
N	-7.2521470	-1.8962570	0.2678200
C	-8.1372580	-2.2938800	1.3660230
C	-8.6732380	-1.0972180	2.1776350
N	-7.7955310	-0.1480680	2.5380590
O	12.6405330	-1.5861460	0.5992140
C	13.6241340	1.9897110	2.7337550
O	10.7796870	1.2544360	1.3528180
C	12.2236380	2.3143900	-2.5323540
O	9.2786110	1.1234480	-1.9414700
C	10.6993860	-2.9040520	-2.0509000
O	7.6934150	-1.9398130	-1.0038750
C	9.1517200	-1.5870630	2.9975480
O	6.1555580	-0.7438990	1.8039440
C	7.6754970	3.1407340	0.8575380
O	4.6602670	1.8973530	0.1934460
C	6.1410360	0.3869090	-3.5165080
O	3.1252540	-0.0445730	-2.1797020
C	4.5698860	-3.5194220	-0.1579310
O	1.5767260	-2.0950650	0.1181980
C	3.0905460	0.4054300	3.2338740
O	0.0837580	0.4928210	1.8015550
C	1.6108070	3.2229410	-1.1089680
O	-1.4086410	1.8339310	-0.9901300
C	0.0549230	-1.4870710	-3.2384820
O	-2.9609120	-1.0678190	-1.8690790
C	-1.5285740	-2.8661140	1.7227110
O	-4.4991740	-1.4670590	1.1630840
C	-2.8760920	2.3096180	2.3461890
O	-5.9264170	1.6363980	1.1973830
C	-4.4571080	2.4603700	-2.7319700
O	-7.3972370	1.2426000	-2.1807690
C	-5.8030620	-2.6828930	-2.4174970
O	-8.8610660	-2.0383500	-1.3416790
O	-9.8639840	-1.0854480	2.5566670
H	14.9055620	-2.4886990	-0.4964490
H	15.0340530	0.0953590	1.7861550
H	12.4668930	0.1625390	2.7886780
H	13.3790070	1.3733770	-0.4470740
H	10.8652210	2.7258200	-0.8991010
H	11.7226170	-0.7074860	-1.1142700
H	9.3493710	-1.3559190	-2.7411980
H	10.3101510	-1.4502420	0.7250420
H	7.7963090	-2.5631130	1.6176000
H	8.8072030	0.8792640	1.1416690
H	6.2947840	1.9430110	2.0218570
H	7.2921490	0.9511040	-1.3212700
H	4.7893240	1.7352940	-2.4901860
H	5.7412470	-1.4269530	-1.0116240
H	3.2150990	-2.6701580	-1.6219050
H	4.2259280	-0.7771960	1.2890170
H	1.7052930	-1.1498040	2.6300270
H	2.7370010	1.4428580	0.3220830
H	0.2348970	2.8550020	0.5243370
H	1.2168140	0.1919130	-1.7237240
H	-1.2912540	0.2108820	-3.1327310
H	-0.3362430	-1.6289640	-0.1580830
H	-2.8889060	-2.9549440	0.0373350
H	-1.8036850	0.2083320	1.4039610
H	-4.2858130	0.7151620	2.7514740
H	-3.3188890	1.6006150	-0.6254710
H	-5.8305580	2.9316910	-1.1495470
H	-4.8155910	-0.4998870	-1.5484230
H	-7.2540910	-1.1770470	-2.9631820
H	-6.2634180	-1.7354300	0.4741590
H	-9.0088610	-2.7930230	0.9386760
C	-7.4217140	-3.2757120	2.3057730
H	-6.9174180	-0.0535120	2.0363850
H	9.9950870	-3.7264060	-2.2061770
H	11.3415490	-2.8320660	-2.9350100
H	11.3228150	-3.1388890	-1.1814630
H	8.4434010	-1.5988670	3.8307390
H	9.8114410	-2.4559260	3.0980670
H	9.7530100	-0.6737320	3.0651130
H	12.8247840	2.5979210	3.1650020
H	14.2963050	1.6936490	3.5470400
H	14.1831000	2.6083230	2.0228390
H	6.9813250	3.9809000	0.7652500
H	8.3549690	3.3439870	1.6921060
H	8.2623630	3.0710500	-0.0648010
H	11.5144170	2.6149100	-3.3079010
H	12.8752230	3.1683900	-2.3179090
H	12.8321260	1.4927900	-2.9281000
H	5.4381250	0.1805910	-4.3287590
H	6.8291450	1.1735220	-3.8429770
H	6.7200550	-0.5202410	-3.3140160
H	3.8593230	-4.2826100	0.1726090
H	5.2394430	-3.9656850	-0.9006620
H	5.1680280	-3.1989130	0.7014910
H	-3.5496930	3.0954990	2.7000540
H	-2.1933620	2.0397460	3.1585280
H	-2.2862660	2.6997470	1.5109840
H	0.9154500	3.8718800	-1.6493410
H	2.2868900	3.8509020	-0.5193970
H	2.2054530	2.6590400	-1.8352470
H	-2.2461500	-3.3018420	2.4243090
H	-0.8734630	-3.6621620	1.3538500
H	-0.9151490	-2.1312980	2.2541120
H	-5.1580520	2.7361540	-3.5245830
H	-3.8253420	3.3271480	-2.5172210
H	-3.8245610	1.6366030	-3.0806340
H	-0.6506140	-2.1087410	-3.7977050
H	0.7440420	-1.0165030	-3.9473870
H	0.6343040	-2.1270120	-2.5650750
H	-6.4563520	-3.5231520	-2.6710090
H	-5.1458100	-2.4739600	-3.2667500
H	-5.1768390	-2.9656830	-1.5658090
H	2.3936080	0.8549660	3.9472720
H	3.7590790	-0.2701830	3.7775540
H	3.6926410	1.1995900	2.7805700
H	-8.0837210	-3.5337050	3.1374560
H	-7.1831230	-4.1969080	1.7654640
H	-6.4979940	-2.8432120	2.7050830
H	14.9241960	-3.0529340	1.1740830
H	15.9520160	-1.6770010	0.7016840
O	-11.5697490	-2.8280200	-1.1231750
H	-11.8413660	-2.5699950	-0.1986220
H	-10.6119500	-2.6526700	-1.1528330
C	-8.1531520	0.9490000	3.4347510
H	-8.6663950	1.7687840	2.9277670
H	-8.8112460	0.5708810	4.2206600
H	-7.2362480	1.3410840	3.8816090
O	-11.1130090	1.6862970	-0.8030070
H	-12.0803940	1.6317240	-0.9764370
H	-10.7204340	1.0109140	-1.4062500
O	-11.3003280	1.3684070	1.9461440
H	-10.7901840	0.6016130	2.2718380
H	-11.1023400	1.4417360	0.9833470
O	-7.8426420	3.8330010	1.1772970
H	-7.2311150	3.0812720	1.2753340
H	-8.3555960	3.6360380	0.3541710
O	-10.0031760	3.7529830	3.1616100
H	-10.5512580	3.0469670	2.7742270
H	-9.2848670	3.9023680	2.5195510
O	-12.6344410	-0.9913310	-2.8090570
H	-12.3224160	-1.7459910	-2.2398360
H	-11.8135430	-0.5769070	-3.1285490
O	-8.9979090	3.4082940	-1.2538220
H	-8.4272120	2.7155550	-1.6410280
H	-9.8780620	2.9859300	-1.1353090
O	-13.6879950	-0.0499000	1.4645100
H	-13.8312310	0.2118010	0.5323510
H	-12.9912150	0.5672160	1.7788020
O	-9.9417110	0.0616300	-2.6984450
H	-9.1165260	0.5706050	-2.8075740
H	-9.6236680	-0.7769440	-2.2954460
O	-12.1481420	-2.2655410	1.4397390
H	-12.8264110	-1.5385550	1.4977860
H	-11.3499900	-1.9068000	1.8800560
O	-13.6814460	0.8202720	-1.2447540
H	-13.3636170	0.0906950	-1.8663280
H	-14.4505040	1.2292350	-1.6608180

