%nproc=24
%mem=64GB
#P PBE1PBE/6-31+G(d,p) opt int=(grid=99590) freq EmpiricalDispersion=GD3

solv sp

0 1
N	5.4895370	3.0384800	0.8317140
H	5.6503630	2.0616820	0.5909700
C	3.4750720	2.9136250	-0.5481120
C	4.3367230	3.6756510	0.4893960
O	3.9979570	4.7777960	0.9190930
N	2.0681460	3.0224580	-0.1341780
H	1.7195400	3.9287370	0.2196240
C	1.1915600	2.0226900	-0.2973360
O	1.4742130	0.9303970	-0.8379520
C	-0.2278840	2.3081090	0.2633660
N	-1.1498390	1.2803170	-0.2159710
H	-1.0646510	0.3480920	0.1785800
C	-2.1256680	1.5106170	-1.1014210
O	-2.3597320	2.6328660	-1.6101150
H	3.7381210	1.8507760	-0.5578190
H	-0.5669040	3.2633670	-0.1420030
C	-2.9198700	0.2724250	-1.5729820
H	-2.4379160	0.0077660	-2.5255540
C	3.7690050	3.4962070	-1.9102080
H	3.5395810	4.5894640	-1.9421310
H	4.8529130	3.3537860	-2.1422200
H	3.1664420	2.9825240	-2.6980580
C	-0.1893410	2.4325870	1.7633950
H	0.2551660	1.5243930	2.2403000
H	0.4080700	3.3359460	2.0465430
H	-1.2221020	2.5520950	2.1828890
C	3.6215520	-1.6488550	-0.9355670
N	4.9532120	-1.9671300	-0.3885990
H	5.2703470	-2.9280810	-0.4476290
C	5.8161620	-1.0135350	0.0730680
O	5.5505640	0.1950860	0.0982610
C	7.1439730	-1.5129500	0.5829910
C	2.6339740	-2.7028000	-0.3833660
O	2.7408000	-3.8909590	-0.7380590
N	1.6987550	-2.2229440	0.4612040
H	1.8636660	-1.3050460	0.8858090
C	0.7259850	-3.0929440	1.1479710
C	-0.5907660	-2.3074960	1.3541400
O	-0.5716690	-1.1595950	1.8588050
N	-1.7127850	-2.9415310	0.9854240
H	-1.6202950	-3.8129340	0.4243040
H	3.3595830	-0.6457000	-0.5879940
H	0.5437920	-3.9591500	0.5058830
C	-3.0680290	-2.3819870	1.2073410
H	-3.7663220	-3.0465250	0.6793260
C	3.5502780	-1.6835290	-2.4413470
H	3.7817630	-2.7035140	-2.8355030
H	2.5116280	-1.4087210	-2.7573450
H	4.2656950	-0.9517950	-2.8884220
C	1.1866730	-3.5723000	2.5046490
H	2.1010150	-4.2063660	2.4054070
H	1.4249950	-2.7060400	3.1733630
H	0.3801830	-4.1816420	2.9802760
H	7.6993230	-2.0569610	-0.2189060
C	-3.4737120	-2.3004040	2.6537600
H	-4.5080770	-1.8790700	2.7170280
H	-3.4664330	-3.3133900	3.1239510
H	-2.7892920	-1.6299810	3.2316000
C	-3.2578660	-0.9964580	0.5382680
C	-4.3468300	0.6545220	-1.8567380
H	-4.3626240	1.4799020	-2.6103460
H	-4.9210250	-0.2212710	-2.2511390
H	-4.8665960	1.0083610	-0.9307960
O	-3.8446540	-0.0661310	1.1047760
N	-2.7275500	-0.8944360	-0.7069840
H	-2.3886310	-1.7332030	-1.1793870
H	7.7564090	-0.6388400	0.9140990
H	6.9976060	-2.1983500	1.4530160
H	6.0805130	3.4889630	1.5183050
O	1.1319840	-6.0933760	-1.0055390
H	1.4574070	-6.8028850	-0.4374650
H	1.7650900	-5.3462720	-0.9080600
O	0.6153290	5.3604490	0.6418240
H	1.1290630	6.1774560	0.6112110
H	-0.2194170	5.5108930	0.1430360
O	-1.7781510	5.3322920	-0.8083670
H	-2.6206440	5.3556000	-0.3259600
H	-1.8263780	4.4761720	-1.2765760
O	-1.3658380	-4.9460680	-0.8816760
H	-0.5414730	-5.4825180	-0.9276080
H	-1.3066860	-4.3071690	-1.6196170
O	-5.7410530	-2.0829260	-0.8209610
H	-6.2715860	-1.2689900	-0.6419380
H	-6.2502690	-2.5664770	-1.4833320
O	0.3408230	-0.6139540	-2.7199860
H	0.6691570	-0.0817540	-1.9495370
H	0.6702210	-0.1635910	-3.5080500
O	-5.8303340	1.9485570	0.9788610
H	-5.4321180	2.7145920	0.5143990
H	-5.0886700	1.3476750	1.1788430
O	-4.5639470	3.9402230	-0.6203200
H	-3.9049330	3.4047020	-1.1165280
H	-5.1774620	4.2883100	-1.2815280
O	-1.3699110	-2.7013590	-2.6028260
H	-1.7697920	-2.7844280	-3.4785660
H	-0.6582020	-2.0168010	-2.6843640
O	1.9828250	-0.3117870	2.5711350
H	1.0125510	-0.4435540	2.5667460
H	2.1408120	0.6152450	2.7937550
O	-7.2824180	0.1766050	-0.4247340
H	-6.7894280	0.8928250	0.0611860
H	-8.0678590	0.0067080	0.1115200
O	-2.0867720	0.7901940	3.3978290
H	-2.9209040	0.7328410	2.9069390
H	-1.5467340	0.1001270	2.9792100

