%nproc=24
%mem=64GB
#P PBE1PBE/6-31+G(d,p) opt int=(grid=99590) freq EmpiricalDispersion=GD3

solv sp

0 1
C	-10.7749270	-1.9581880	2.2559680
C	-9.7725260	-1.8907850	1.1204640
N	-10.2828400	-1.7574980	-0.1311620
C	-9.4096000	-1.7291790	-1.2974300
C	-8.4303920	-0.5398780	-1.3053690
N	-8.9236080	0.6784910	-0.9781660
C	-8.0332270	1.8354620	-0.9460000
C	-6.9297810	1.6935380	0.1241190
N	-7.3109400	1.2361020	1.3371480
C	-6.3246640	0.9995340	2.3869280
C	-5.2639450	-0.0356110	1.9607240
N	-5.7082880	-1.1582480	1.3544420
C	-4.7669820	-2.1824460	0.9114920
C	-3.7855990	-1.6464120	-0.1487540
N	-4.3055210	-0.8791280	-1.1329170
C	-3.4439420	-0.2926520	-2.1535450
C	-2.3961260	0.6619560	-1.5469960
N	-2.8319640	1.5302340	-0.6063910
C	-1.9033250	2.4441120	0.0502240
C	-0.8017020	1.6933240	0.8243400
N	-1.1934440	0.6421240	1.5780920
C	-0.2165550	-0.1525360	2.3142720
C	0.8097890	-0.8200670	1.3776030
N	0.3278510	-1.4019240	0.2567080
C	1.2295670	-2.0257680	-0.7060660
C	2.2289860	-1.0157190	-1.3046140
N	1.7334650	0.1858420	-1.6777110
C	2.6120230	1.2223600	-2.2087740
C	3.6872540	1.6518270	-1.1896320
N	3.2777670	1.8473090	0.0844700
C	4.2323990	2.2175220	1.1238880
C	5.3153580	1.1392830	1.3298970
N	4.8969330	-0.1474130	1.3514170
C	5.8557170	-1.2352450	1.5022940
C	6.8685300	-1.2835910	0.3408360
N	6.3784080	-1.1123040	-0.9077070
C	7.2695660	-1.1204780	-2.0623080
C	8.2846650	0.0416890	-2.0428440
N	7.8311270	1.2408970	-1.6075620
C	8.7139790	2.3993260	-1.5547720
C	9.8069940	2.2982580	-0.4683000
N	9.4667190	1.6386930	0.6740160
C	10.3927110	1.5459000	1.7928500
C	11.3571170	0.3403480	1.7388850
N	10.9247600	-0.7616800	1.0594910
C	11.6669350	-2.0152900	1.1066580
C	12.0190370	-2.5978230	-0.2773010
N	11.6502360	-1.8753860	-1.3609160
O	-8.5523090	-1.9363920	1.3299030
C	-10.2445690	-1.7448020	-2.5843400
O	-7.2534340	-0.7142850	-1.6440660
C	-8.8273540	3.1316070	-0.7503150
O	-5.7601090	1.9933220	-0.1476560
C	-7.0211320	0.5596840	3.6800290
O	-4.0664540	0.1730170	2.1967620
C	-5.5211400	-3.4083560	0.3842590
O	-2.5833670	-1.9357330	-0.0880380
C	-4.2890250	0.4289240	-3.2097850
O	-1.2212930	0.6269920	-1.9360930
C	-2.6632370	3.3994590	0.9774970
O	0.3758180	2.0700360	0.7547880
C	-0.9275780	-1.2005120	3.1783090
O	2.0120410	-0.8225850	1.6734770
C	0.4255350	-2.7169890	-1.8135000
O	3.4199390	-1.3246850	-1.4415260
C	1.7875060	2.4306180	-2.6676250
O	4.8575910	1.8219620	-1.5543050
C	3.4986710	2.5065280	2.4386650
O	6.4987340	1.4648730	1.4838640
C	5.1235150	-2.5753630	1.6371510
O	8.0663050	-1.4927560	0.5684550
C	6.4526080	-1.0883910	-3.3593140
O	9.4396460	-0.1375960	-2.4452790
C	7.8938780	3.6781020	-1.3428020
O	10.8965720	2.8426940	-0.6443200
C	9.6279060	1.5111440	3.1244750
O	12.4342300	0.4029630	2.3341430
O	12.6166900	-3.6777420	-0.3542960
H	-10.7070360	-1.0173860	2.8125680
H	-11.2920950	-1.6621780	-0.2591200
H	-8.7531230	-2.6054270	-1.2748700
H	-9.8986230	0.7874050	-0.6885400
H	-7.4791470	1.8820060	-1.8888280
H	-8.3014930	1.0946690	1.5464630
H	-5.7477060	1.9140250	2.5622220
H	-6.7083860	-1.3249300	1.2381160
H	-4.1232000	-2.4707590	1.7493880
H	-5.3090100	-0.7071760	-1.1777560
H	-2.8471150	-1.0813590	-2.6237150
H	-3.8163110	1.5546860	-0.3432350
H	-1.3559780	3.0133190	-0.7087150
H	-2.1811340	0.4000020	1.6514220
H	0.3877970	0.5075550	2.9456920
H	-0.6756770	-1.4242040	0.0774560
H	1.8633590	-2.7554980	-0.1910370
H	0.7353730	0.3776740	-1.5999600
H	3.1872340	0.8173460	-3.0481970
H	2.2936730	1.7470270	0.3309370
H	4.7937800	3.1018800	0.8037300
H	3.9047130	-0.3684970	1.2792120
H	6.4759170	-1.0540560	2.3867080
H	5.3765370	-1.0001230	-1.0558910
H	7.8950290	-2.0189630	-2.0309640
H	6.8484120	1.3584300	-1.3686260
H	9.2769130	2.4638010	-2.4913850
H	8.5050400	1.3356470	0.8079410
H	11.0501740	2.4191430	1.7616600
H	9.9475030	-0.8076330	0.7755690
H	12.6252610	-1.7811700	1.5801610
C	10.9360280	-3.0766560	1.9472880
H	11.1195320	-1.0195640	-1.2485720
H	-6.2729990	0.3507190	4.4502550
H	-7.6800780	1.3530620	4.0494680
H	-7.6188370	-0.3429080	3.5148940
H	-4.8056200	-4.1678620	0.0557590
H	-6.1497020	-3.8367220	1.1716900
H	-6.1625040	-3.1377460	-0.4608340
H	-9.5843080	-1.7059370	-3.4554210
H	-10.8349770	-2.6660550	-2.6420540
H	-10.9259110	-0.8876090	-2.6250400
H	-3.6354590	0.8653540	-3.9708520
H	-4.9721460	-0.2748880	-3.6965930
H	-4.8821320	1.2274760	-2.7522260
H	-8.1400080	3.9821620	-0.7223910
H	-9.5233140	3.2796740	-1.5839830
H	-9.3960300	3.1096040	0.1848190
H	-1.9576580	4.0777800	1.4663410
H	-3.3816120	3.9955950	0.4049170
H	-3.2090420	2.8427040	1.7462840
H	-0.1875300	-1.7913910	3.7260990
H	-1.5896410	-0.7119910	3.9008840
H	-1.5282800	-1.8733250	2.5575900
H	7.1292170	-1.0922220	-4.2189520
H	5.7979020	-1.9642430	-3.4220690
H	5.8309880	-0.1876580	-3.4020630
H	2.4538800	3.2040900	-3.0609500
H	1.0868960	2.1371210	-3.4565340
H	1.2147160	2.8476170	-1.8328740
H	5.8526090	-3.3836360	1.7475570
H	4.4720310	-2.5673680	2.5174930
H	4.5082030	-2.7723090	0.7530210
H	8.5670660	4.5392630	-1.3031600
H	7.1818240	3.8193850	-2.1630410
H	7.3311120	3.6256860	-0.4041680
H	4.2229260	2.7807750	3.2115000
H	2.7933390	3.3341680	2.3084980
H	2.9408920	1.6256360	2.7731680
H	10.3389010	1.4342660	3.9519480
H	9.0312020	2.4212230	3.2456480
H	8.9470700	0.6529860	3.1629720
H	1.1089320	-3.1754260	-2.5344930
H	-0.2124060	-3.4994120	-1.3893530
H	-0.2119180	-1.9973020	-2.3375130
H	11.4970960	-4.0142590	1.9200530
H	10.8473080	-2.7351600	2.9843890
H	9.9289090	-3.2519850	1.5529640
H	-10.4913350	-2.7772710	2.9228630
H	-11.8035660	-2.0988790	1.9102890
O	-11.7308690	1.2593320	-0.1041050
H	-12.3443750	0.4949790	-0.2250630
H	-12.1376250	2.0463660	-0.5212640
C	11.9061960	-2.3367330	-2.7128880
H	12.9312170	-2.1047210	-3.0327890
H	11.7780160	-3.4225600	-2.7649670
H	11.1983310	-1.8403330	-3.3809760
O	-13.1318100	-1.0409190	-0.4424970
H	-13.5650480	-1.2116790	-1.3060240
H	-13.7317600	-1.3737880	0.2578090
O	-10.1969210	1.3462330	2.1234750
H	-10.4363710	2.0553030	2.7329030
H	-10.8581290	1.3642730	1.3903160
O	-14.6814580	-2.0382970	1.6204690
H	-14.8833500	-1.5700170	2.4413190
H	-14.7913760	-2.9792660	1.8115230
O	-12.7998850	3.5243390	-1.3278200
H	-13.2023790	4.2350860	-0.8104260
H	-12.2700460	3.9627240	-2.0075280
O	-14.2756850	-1.5333890	-2.9047470
H	-13.9645260	-2.2231020	-3.5059290
H	-14.6960590	-0.8617760	-3.4580490

