%nproc=24
%mem=64GB
#P PBE1PBE/6-31+G(d,p) opt int=(grid=99590) freq EmpiricalDispersion=GD3  scrf=(cpcm, solvent=water)

solv sp

0 1
N	-2.5568280	4.2459930	-1.8352140
H	-3.2567950	3.9451180	-1.1591390
C	-0.9532220	4.2642590	0.0168700
C	-1.2482000	4.3792420	-1.5065910
O	-0.3610440	4.6203290	-2.3324350
N	0.2875480	3.5065510	0.2437030
H	1.1600080	3.9994190	-0.0409850
H	-1.7723060	3.7282110	0.5072990
C	-0.8696130	5.6686660	0.5635200
H	-0.0162830	6.2271610	0.1003560
H	-1.8199760	6.2101160	0.3356570
H	-0.7250760	5.6551300	1.6710560
C	-3.7609330	1.0147690	1.8641560
N	-5.0920260	1.5757810	1.6026410
H	-5.8881750	0.9988170	1.8493160
C	-5.2958260	2.5905670	0.7090430
O	-4.3814810	3.2335290	0.1798670
C	-3.6646860	-0.3849320	1.2073910
O	-4.6944740	-1.0662220	1.0225570
H	-3.0243320	1.6780990	1.3981920
C	-3.4404420	0.8845980	3.3319220
H	-4.1317200	0.1704600	3.8421680
H	-2.3921450	0.5120080	3.4468810
H	-3.5187970	1.8765640	3.8408330
N	-2.4196820	-0.7872180	0.9087620
H	-1.6479260	-0.1094020	0.9559600
C	-2.1658980	-2.0828010	0.2685790
H	-2.7641490	-2.8409100	0.7947030
C	-0.6714660	-2.4356180	0.4670740
O	0.0767010	-1.7000450	1.1299790
N	-0.2449300	-3.5619850	-0.1342420
H	-0.8691730	-4.1083730	-0.7333040
C	1.1697400	-3.9868110	-0.0687000
H	1.4662780	-4.1877980	0.9717420
C	2.1489750	-2.8908290	-0.5644270
O	3.2828100	-2.7940100	-0.0670990
N	1.7077760	-2.0697080	-1.5472400
H	0.8586510	-2.3132990	-2.0726650
C	2.5781030	-1.0118790	-2.0779090
C	2.6873490	0.2500000	-1.1728430
O	3.6339230	1.0388880	-1.4049350
N	1.7642900	0.4025590	-0.2183070
H	1.1006980	-0.3577230	-0.0741200
C	1.6366870	1.4922440	0.7869920
H	1.5062140	0.9815740	1.7537230
C	0.2762470	2.2017600	0.5513960
O	-0.7657010	1.5298410	0.6923590
C	1.4056810	-5.2391530	-0.8757010
H	2.4968250	-5.4840800	-0.8555610
H	0.8445890	-6.0994090	-0.4339670
H	1.0762680	-5.1138290	-1.9380480
C	2.8252380	2.3984530	0.9054380
H	3.7343740	1.8021790	1.1821150
H	3.0581830	2.9456010	-0.0443760
H	2.6407260	3.1485100	1.7147010
C	-2.5392240	-2.1213470	-1.1944790
H	-1.7741980	-1.6152460	-1.8337360
H	-2.6445560	-3.1809300	-1.5388760
H	-3.5299950	-1.6249510	-1.3571870
C	-6.7340030	2.9202520	0.3989020
H	-6.7642840	3.8010660	-0.2881310
H	-7.2324780	2.0550620	-0.1018370
H	-7.2962220	3.1734190	1.3303710
H	-2.8057950	4.3453550	-2.8105880
C	2.1593040	-0.5545650	-3.4524050
H	2.8360760	0.2728940	-3.7832130
H	2.2344820	-1.3946210	-4.1857280
H	1.1070740	-0.1769530	-3.4596520
H	3.6063350	-1.3931980	-2.1308280
O	-5.5037620	-3.0626580	-0.6048440
H	-6.0442420	-2.5716960	-1.2367980
H	-5.1628370	-2.3896950	0.0376710
O	-4.1653760	-5.1812750	-1.5057550
H	-4.6234970	-4.3514760	-1.1976270
H	-4.5201370	-5.8930300	-0.9577630
O	2.1292570	5.1202860	-0.9866020
H	1.4389380	5.1256100	-1.6771930
H	2.9407620	4.7378780	-1.4053700
O	4.3543540	3.8467420	-1.9221460
H	4.0819740	2.9144900	-1.9712230
H	4.9314000	3.8883510	-1.1267600
O	5.7164790	0.8751780	0.2874420
H	6.5319730	0.5705800	-0.1346170
H	5.0252790	0.9181840	-0.4220550
O	4.4211330	-1.1039620	1.8785230
H	4.9436370	-0.3944190	1.4521950
H	4.1595390	-1.7108700	1.1592370
O	3.1585310	-4.7668850	2.2787430
H	3.3062390	-4.1949550	3.0658760
H	3.5728740	-4.2740310	1.5542600
O	5.7003490	3.6655050	0.5177860
H	5.1050540	3.9615060	1.2197520
H	5.7846470	2.6940900	0.6215970
O	3.6862880	-2.8146000	4.2204400
H	4.3704320	-2.3383810	3.7209900
H	2.9200690	-2.2088670	4.1436900
O	-0.4825660	-2.8927670	-3.2800570
H	-0.9271360	-3.7391340	-3.0493900
H	-0.4409350	-2.8494470	-4.2434230
O	-1.6260400	-5.1603440	-2.2050420
H	-2.6021920	-5.2243260	-1.9846610
H	-1.3038470	-6.0570500	-2.3640960
O	1.9643170	-0.8166970	3.1760440
H	2.8027840	-0.7809330	2.6645020
H	1.3213320	-1.2501520	2.5893990

