%nproc=24
%mem=64GB
#P PBE1PBE/6-31+G(d,p) opt int=(grid=99590) freq EmpiricalDispersion=GD3

solv sp

0 1
N	5.1939450	-1.4638470	-0.4617280
H	5.0494440	-0.5120980	-0.1259790
C	2.9009710	-1.7758590	0.2736500
C	4.1427070	-2.3184220	-0.4470550
O	4.1456260	-3.4587770	-0.9228450
N	1.7270540	-2.3492760	-0.3724920
H	1.8385590	-3.2947870	-0.7254700
C	0.5603090	-1.6909510	-0.4893900
O	0.3961530	-0.5380830	-0.0535690
C	-0.5660910	-2.4213000	-1.2465330
N	-1.8513790	-2.1096750	-0.6460100
H	-2.3055830	-1.2536820	-0.9522650
C	-2.2110880	-2.6794050	0.5387480
O	-1.5663870	-3.5853880	1.0666940
H	2.8536530	-0.6911800	0.1700450
H	-0.4063870	-3.5010160	-1.1587080
C	-3.5266590	-2.1651570	1.1729690
C	2.9557060	-2.1373970	1.7704620
H	3.0323720	-3.2218360	1.9010720
H	3.8216940	-1.6641230	2.2452130
H	2.0467260	-1.7873350	2.2690210
C	-0.5565690	-1.9958430	-2.7221610
H	-0.7520750	-0.9222000	-2.8115140
H	0.4116530	-2.2172850	-3.1821150
H	-1.3342170	-2.5370980	-3.2704240
C	1.8301610	2.1253210	0.8318230
N	3.0081870	2.9720310	0.7072940
H	2.8330690	3.9711340	0.7297600
C	4.2488160	2.4785770	0.4893400
O	4.4797680	1.2621980	0.4060550
C	5.3624250	3.5015040	0.3493870
C	0.6282200	2.9339210	0.3251690
O	0.5979870	4.1665100	0.4261230
N	-0.3769630	2.1908280	-0.1974520
H	-0.2466860	1.1786850	-0.3013220
C	-1.5951040	2.8182130	-0.7001690
C	-2.6524290	1.7216260	-0.8664550
O	-2.4768840	0.7646720	-1.6232670
N	-3.7928860	1.8598330	-0.1264210
H	-3.9069360	2.7063440	0.4169060
H	1.9684160	1.2414750	0.2088720
H	-1.9201620	3.5621090	0.0378880
C	-4.9871630	1.0497190	-0.3885980
C	1.5944500	1.6689340	2.2846100
H	1.3899370	2.5276340	2.9333570
H	0.7512050	0.9731870	2.3279190
H	2.4856740	1.1517710	2.6529170
C	-1.3821880	3.5248820	-2.0520200
H	-0.6046730	4.2845570	-1.9416110
H	-1.0814570	2.7966110	-2.8104140
H	-2.3049960	4.0153160	-2.3841050
H	5.0165110	4.5350650	0.4431300
C	-4.8580450	-0.4409070	-0.0131590
O	-5.6927900	-1.2342140	-0.4398620
N	-3.8215570	-0.7864190	0.7989430
H	-3.1860420	-0.0580130	1.0986320
H	6.1186100	3.3040630	1.1156800
H	5.8389910	3.3684420	-0.6269540
C	6.4787480	-1.8232130	-1.0375040
H	6.4536660	-2.8839120	-1.2951640
H	6.6837800	-1.2440930	-1.9468810
H	7.2877170	-1.6448100	-0.3192810
C	-3.5010990	-2.3477310	2.6936360
H	-4.4835500	-2.1125270	3.1149930
H	-3.2358920	-3.3784990	2.9374150
H	-2.7523120	-1.6940130	3.1569310
H	-4.3363990	-2.7651500	0.7426490
H	-5.1675050	1.0318470	-1.4695630
C	-6.2003210	1.6589480	0.3231410
H	-6.3990220	2.6728030	-0.0427500
H	-7.0789590	1.0411690	0.1249480
H	-6.0459460	1.6990320	1.4082600

