%nproc=24
%mem=64GB
#P PBE1PBE/6-31+G(d,p) opt freq  int=(grid=99590) scrf=(cpcm, solvent=water) EmpiricalDispersion=GD3

solv sp

0 1
N	-5.1640510	1.9680300	-0.2108050
H	-5.1591170	0.9553160	-0.0876370
C	-2.8331440	1.7658450	0.4424210
C	-3.9985100	2.6363550	-0.0563870
O	-3.8387580	3.8464570	-0.2548110
N	-1.6027760	2.4530940	0.0787990
H	-1.7093120	3.4514550	-0.0860730
C	-0.4361950	1.8194820	-0.1361150
O	-0.2918820	0.5929180	0.0028780
C	0.7219770	2.7052370	-0.6082230
N	1.9680190	2.0534180	-0.2438080
H	1.9498950	1.0457300	-0.1391890
C	3.0973290	2.7746050	-0.0088900
O	3.1350920	4.0021900	-0.1030620
H	-2.8603020	0.7971920	-0.0608790
H	0.6896100	3.6712050	-0.0928060
C	4.3575470	2.0012550	0.4228690
C	-2.9373020	1.5451570	1.9638530
H	-2.9801960	2.5053250	2.4890470
H	-3.8359600	0.9688500	2.2029120
H	-2.0626820	0.9906850	2.3170570
C	0.6207630	2.9583340	-2.1275310
H	0.6387220	2.0114020	-2.6778630
H	-0.3026310	3.4915980	-2.3789630
H	1.4714570	3.5683560	-2.4433150
C	-2.3111530	-2.2117880	0.6506830
N	-3.5326980	-2.8201620	0.1415470
H	-3.4540650	-3.8035120	-0.0975040
C	-4.6661390	-2.1269840	-0.1077620
O	-4.7663570	-0.9084580	0.1075910
C	-5.8285410	-2.9230240	-0.6741820
C	-1.1334460	-2.9999120	0.0638190
O	-1.2418090	-4.2039510	-0.2013950
N	0.0026820	-2.2869260	-0.0931600
H	-0.0036300	-1.2799330	0.0747630
C	1.2228720	-2.9143900	-0.5673620
C	2.4234320	-2.1296750	-0.0002620
O	2.3127850	-1.4336350	1.0156530
N	3.5943180	-2.2843120	-0.6709980
H	3.5676430	-2.7930350	-1.5426660
H	-2.2692890	-1.1752450	0.3116760
H	1.2665680	-3.9172980	-0.1219080
C	4.9054160	-1.7479930	-0.2661010
C	-2.2481970	-2.2437840	2.1904510
H	-2.2612630	-3.2773390	2.5523530
H	-1.3326390	-1.7600570	2.5460480
H	-3.1093140	-1.7120900	2.6059410
C	1.2120090	-3.0767380	-2.1008100
H	0.2897230	-3.5896690	-2.3846660
H	1.2461830	-2.1059510	-2.6064280
H	2.0412200	-3.6983760	-2.4616160
H	-5.6022610	-3.9845060	-0.8102910
C	5.0306560	-0.2127600	-0.4388440
O	5.8438090	0.2448480	-1.2402180
N	4.2369280	0.5500940	0.3662530
H	3.6082660	0.0575620	0.9992370
H	-6.6848220	-2.8210550	-0.0001710
H	-6.1130220	-2.4890410	-1.6379420
C	-6.3936940	2.6291890	-0.6145710
H	-6.2004280	3.7015020	-0.6821230
H	-6.7333720	2.2680350	-1.5932520
H	-7.1892300	2.4525280	0.1191760
H	5.6166090	-2.1378660	-0.9983810
C	5.3361770	-2.2223330	1.1316150
H	5.3991420	-3.3156880	1.1522010
H	6.3263140	-1.8165500	1.3641150
H	4.6349600	-1.9029940	1.9051120
C	4.7865860	2.4781470	1.8217620
H	5.7601470	2.0504150	2.0813920
H	4.8584360	3.5685470	1.8317430
H	4.0581720	2.1722400	2.5827380
H	5.1298100	2.2713160	-0.3023130

