%nproc=24
%mem=64GB
#P PBE1PBE/6-31+G(d,p) opt freq  int=(grid=99590) scrf=(cpcm, solvent=water) EmpiricalDispersion=GD3

solv sp

0 1
C	-5.5289660	1.9068850	0.7664240
N	-4.2706910	2.5331960	0.3815770
H	-4.2032720	3.5623890	0.4553190
C	-3.2076590	1.8339540	-0.0508700
O	-3.1603750	0.5947490	-0.1311450
C	-2.0123270	2.6835600	-0.5032690
N	-0.7960380	2.1647660	0.1161210
H	-0.6523150	1.1482540	0.1348340
C	-6.6605680	2.4671630	-0.1096590
O	-6.7317320	3.6938000	-0.3253410
N	-7.5462520	1.5618810	-0.5644150
H	-7.3694350	0.5648330	-0.3853210
C	-8.6899610	1.9250220	-1.3963180
C	-9.9405290	1.1907750	-0.8863280
O	-9.9367210	-0.0399600	-0.7176480
N	-11.0193080	1.9657640	-0.6767010
H	-10.9506460	2.9843530	-0.8130610
H	-5.4376660	0.8323750	0.6045840
H	-8.8329080	3.0028180	-1.3043610
C	2.4457000	-2.1096940	0.7334100
C	3.6815730	-2.6455430	-0.0059140
O	3.8821170	-3.8746520	-0.0886630
N	4.4831100	-1.7011080	-0.5265620
H	4.2506740	-0.7175500	-0.3609180
C	5.7229730	-1.9805630	-1.2409370
C	6.8991110	-1.4043430	-0.4339510
O	6.8289240	-0.2574410	0.0512550
N	7.9681710	-2.2015550	-0.3270750
H	7.9388080	-3.1436640	-0.7670560
N	1.2539560	-2.5467320	0.0099370
H	1.2231140	-3.5225990	-0.3418910
C	0.1893940	-1.7501660	-0.1769080
O	0.1085380	-0.5753710	0.2235900
C	-0.9615380	-2.3904830	-0.9756960
N	-2.2282620	-2.0830350	-0.3247520
H	-2.5099230	-1.0980860	-0.2904540
H	2.4547350	-1.0182730	0.7221930
H	5.8258500	-3.0635560	-1.3278060
H	-0.8459800	-3.4762000	-0.9873210
C	1.3756150	2.2648380	1.2218550
N	2.6132790	2.8961680	0.7854870
H	2.7141880	3.9156640	0.9191050
C	3.6196860	2.2157750	0.2098810
O	3.6389990	0.9854800	0.0393850
C	4.7725530	3.0920900	-0.2941660
N	6.0401750	2.4645850	0.0631880
H	6.1070570	1.4383670	0.0456920
C	7.1491790	3.1813830	0.2987050
O	7.2153500	4.4289400	0.2442400
C	0.1881240	2.9718800	0.5521810
O	0.1599750	4.2172700	0.4799430
H	1.4016100	1.2183070	0.9143060
H	4.7278970	4.0641160	0.1963100
C	-4.2762490	-2.4279730	0.9356040
C	-2.9959230	-2.9898850	0.3005240
O	-2.7288770	-4.2079640	0.3844870
N	-5.4316530	-3.0060550	0.2539130
H	-5.4601900	-4.0374450	0.1532930
C	-6.5015950	-2.2734410	-0.0972700
O	-6.5833440	-1.0411950	0.0510770
C	-7.6577650	-3.0686730	-0.7326710
N	-8.9182290	-2.6731670	-0.1207860
H	-9.3027290	-1.7642160	-0.3875420
C	-9.4128320	-3.2856290	0.9796970
O	-8.8898010	-4.2822530	1.5056340
H	-4.3138430	-1.3486500	0.7798050
H	-7.5110560	-4.1345420	-0.5385650
C	-10.6968340	-2.6979540	1.5368810
H	-10.9998280	-1.7856280	1.0167220
H	-11.4888550	-3.4498960	1.4551340
H	-10.5504400	-2.4877050	2.6008180
C	-12.2837540	1.4003750	-0.2307650
H	-12.5755530	0.5564830	-0.8647750
H	-12.2182770	1.0384860	0.8029780
H	-13.0515210	2.1762570	-0.2842770
C	9.1646630	-1.8017760	0.4083940
H	9.2465020	-0.7140310	0.3590610
C	8.3828340	2.3690780	0.7033010
H	8.3580830	1.3965190	0.2109270
H	9.4613720	4.0974900	0.1625470
C	10.7187140	2.4742170	-0.0878110
C	11.8452460	3.3738430	-0.5655090
H	11.5778190	4.4345710	-0.5812520
H	12.7106930	3.2304370	0.0889960
H	12.1377470	3.0619600	-1.5730480
O	10.8641980	1.2449300	-0.0180490
N	9.5633320	3.0928500	0.2509810
C	10.3912730	-2.4507120	-0.2499020
H	11.2807310	-0.6057720	-0.3000090
C	12.6837850	-2.0411330	-1.0416450
H	13.5201410	-1.7106470	-0.4147560
H	12.6769370	-3.1316820	-1.0900750
H	12.8263360	-1.6433790	-2.0544140
O	10.4218400	-3.6643560	-0.4982870
N	11.4190980	-1.6000850	-0.4775890
C	9.0864550	-2.2358810	1.8843230
H	8.2068770	-1.7857210	2.3553160
H	9.0128940	-3.3253390	1.9576990
H	9.9794190	-1.9091550	2.4292060
C	8.3871310	2.1458010	2.2289490
H	8.3579520	3.1012400	2.7640800
H	7.5223730	1.5442840	2.5255730
H	9.2962930	1.6077500	2.5139280
C	4.6396620	3.2909360	-1.8165700
H	4.6668770	2.3256180	-2.3324130
H	3.6942840	3.7889980	-2.0570410
H	5.4613730	3.9141790	-2.1819290
C	5.7007010	-1.3529100	-2.6446440
H	4.8613870	-1.7548700	-3.2208010
H	5.5927910	-0.2647740	-2.5787750
H	6.6299240	-1.5810950	-3.1765860
C	2.4440850	-2.6148560	2.1850880
H	1.5577810	-2.2379080	2.7050490
H	2.4361160	-3.7085240	2.2134240
H	3.3353410	-2.2619980	2.7165010
C	1.2148490	2.3560970	2.7508610
H	1.2062890	3.4020980	3.0746870
H	0.2805240	1.8808800	3.0680750
H	2.0485740	1.8434830	3.2410840
C	-0.9473100	-1.8558350	-2.4169220
H	-1.7615160	-2.3071970	-2.9924740
H	-1.0730780	-0.7680360	-2.4241490
H	0.0023080	-2.1001660	-2.9037150
C	-1.9202220	2.6660250	-2.0402890
H	-1.7911590	1.6418400	-2.4044240
H	-2.8315950	3.0803980	-2.4852870
H	-1.0678260	3.2693920	-2.3675930
C	-4.3004980	-2.7406920	2.4410030
H	-4.2946150	-3.8203540	2.6167480
H	-3.4290090	-2.3015700	2.9399850
H	-5.2070130	-2.3201880	2.8873660
C	-5.8547920	2.1907820	2.2440310
H	-5.9175710	3.2693150	2.4227510
H	-6.8082530	1.7291890	2.5222850
H	-5.0697620	1.7746030	2.8833990
C	-7.6953110	-2.8143650	-2.2455230
H	-7.8679350	-1.7530740	-2.4519360
H	-6.7471200	-3.1088730	-2.7065520
H	-8.5022460	-3.3947360	-2.7039070
C	-8.4450760	1.5737180	-2.8746440
H	-7.5563830	2.0979950	-3.2397240
H	-8.2935740	0.4965770	-2.9946750
H	-9.3028270	1.8712690	-3.4882530
H	-2.1433730	3.7117550	-0.1652490
O	-1.5412280	6.3160700	0.4044810
H	-1.2947790	6.8039760	1.2009880
H	-0.9221570	5.5473700	0.3683080
O	-4.0664850	5.3408250	0.5877000
H	-4.6486610	5.6942000	-0.0970570
H	-3.1855790	5.7796250	0.4869920
O	5.4476910	6.5215280	0.2021060
H	5.8629740	7.1915220	0.7597810
H	6.0883700	5.7716730	0.1667540
O	2.9737690	5.7034870	1.0489100
H	2.2643700	6.0301880	0.4800780
H	3.8209410	6.0880000	0.7191610
O	1.3108250	-5.1746420	-0.9020300
H	0.6089460	-5.6957800	-0.4428170
H	2.1577880	-5.3301870	-0.4580310
O	-0.8973790	-6.2428840	0.2344170
H	-1.5203140	-5.4858590	0.3105190
H	-1.3655950	-6.9113240	-0.2821540
O	7.9359410	-4.6950710	-1.5329990
H	8.8185440	-4.8612110	-1.1615400
H	7.2762740	-5.2710190	-1.0844770
O	5.7191840	-5.8975880	-0.4759460
H	5.0973330	-5.1543810	-0.3123280
H	5.2889130	-6.4492640	-1.1418830
O	-8.4284960	5.7540570	-0.4552110
H	-8.3205880	6.1734900	0.4080150
H	-7.7914340	4.9978560	-0.4642370
O	-10.8448400	4.7669280	-1.0506570
H	-11.0979990	5.1768380	-1.8870240
H	-9.9823690	5.1881260	-0.7952160
O	-6.8938730	-5.9555160	2.2779890
H	-7.6012820	-5.3280140	2.0052680
H	-7.3516500	-6.7604400	2.5499080
O	-5.1861770	-5.7875670	0.1866340
H	-4.2762420	-5.6046070	0.4753180
H	-5.7167550	-6.0034890	0.9904510

