%nproc=24
%mem=64GB
#P PBE1PBE/6-31+G(d,p) opt freq  int=(grid=99590) scrf=(cpcm, solvent=water) EmpiricalDispersion=GD3

solv sp

0 1
C	-12.6989490	-1.5029410	-1.9312600
C	-11.6140730	-0.4695750	-1.7054770
H	-12.6971930	-2.1729720	-1.0652080
H	-12.4509280	-2.1064820	-2.8092950
H	-13.6893150	-1.0540990	-2.0448660
N	-12.0181700	0.7602240	-1.3309700
O	-10.4030390	-0.7471860	-1.8325240
C	-11.0798090	1.8552860	-1.1238960
H	-13.0219730	0.9206660	-1.2206650
H	-10.1884170	-2.4184330	-2.5470040
C	-10.0633410	1.5792180	-0.0011550
C	-11.8302160	3.1658740	-0.8453030
H	-10.4764440	1.9793610	-2.0269200
O	-14.8157140	0.8296780	-0.7122490
O	-10.2528530	-3.3529190	-2.8342010
N	-10.5153840	1.0495190	1.1503400
O	-8.8658410	1.8931670	-0.1569640
H	-11.1091560	3.9827470	-0.7541000
H	-12.4966580	3.4030570	-1.6822720
H	-12.4233780	3.0998270	0.0746640
H	-13.9058710	0.4435400	0.7310140
H	-15.2125360	1.7144510	-0.8637740
H	-15.4271950	0.1562460	-1.0817660
H	-9.5307390	-3.4915990	-3.4600220
C	-9.5875440	0.7948530	2.2533490
H	-11.5011100	0.7758680	1.2297630
H	-8.5831590	3.0284790	-1.6063730
O	-13.2662280	0.2265950	1.4514730
O	-15.7807680	3.3470130	-1.1481700
O	-16.4735170	-1.1346080	-1.7508020
C	-8.5519800	-0.2860660	1.8900820
C	-10.3329590	0.4238890	3.5398730
H	-9.0028740	1.7006390	2.4332190
O	-8.7455860	3.5197350	-2.4356750
H	-13.5766760	0.6592630	2.2740140
H	-12.4401710	-1.2966440	1.3712960
H	-15.4396390	3.9299790	-1.8378990
H	-16.0584320	3.9182100	-0.4192530
H	-16.5836380	-1.9833850	-1.3020900
H	-16.5952000	-1.3150350	-2.6919650
N	-8.9970570	-1.3894610	1.2707020
O	-7.3488920	-0.1197300	2.1786540
H	-9.6084180	0.2674380	4.3427550
H	-10.9894680	1.2462160	3.8469430
H	-10.9313900	-0.4820840	3.4144050
H	-7.9182300	3.9606720	-2.6602560
O	-13.9597570	1.5035520	3.7596730
O	-11.7921560	-2.0277020	1.2388210
C	-8.0664630	-2.4432570	0.8746850
H	-10.0046780	-1.5337980	1.1258060
H	-7.0654450	1.1727860	3.4727890
H	-14.2703660	0.9679600	4.5024310
H	-13.2989480	2.1069300	4.1256080
H	-11.9925700	-2.7110580	1.8918990
C	-7.0808740	-1.9389740	-0.1922240
C	-8.8083350	-3.6941250	0.3917250
H	-7.4423760	-2.7022650	1.7343020
O	-7.2119670	1.9310030	4.0728180
N	-7.5535050	-1.1246740	-1.1542810
O	-5.8826670	-2.2888970	-0.1497930
H	-8.0773560	-4.4739260	0.1591550
H	-9.4478380	-4.0772360	1.1948600
H	-9.4208880	-3.5109240	-0.4942490
H	-6.3965620	2.0432180	4.5746870
C	-6.6461570	-0.5982320	-2.1763160
H	-8.5433900	-0.8927930	-1.2029920
H	-5.5502900	-3.7157550	0.9870960
C	-5.5994780	0.3411480	-1.5570900
C	-7.4192670	0.1059940	-3.3009900
H	-6.0729680	-1.4281920	-2.5971700
O	-5.6022890	-4.3453330	1.7318550
N	-6.0132220	1.2089900	-0.6128840
O	-4.4113830	0.2991470	-1.9355100
H	-6.7082510	0.4237590	-4.0674800
H	-8.1217630	-0.5918610	-3.7650730
H	-7.9750480	0.9761880	-2.9423870
H	-4.8472360	-4.9420730	1.6397510
C	-5.0617090	2.1205840	0.0241950
H	-6.9933450	1.2460710	-0.3362800
H	-4.1509000	-0.6576930	-3.5053220
C	-4.0251100	1.3481870	0.8585380
C	-5.7800030	3.1740950	0.8763880
H	-4.4809330	2.6239580	-0.7544860
O	-4.2573760	-1.3010770	-4.2305620
N	-4.4536290	0.3051380	1.5950940
O	-2.8274840	1.6971830	0.8522830
H	-5.0363100	3.8570290	1.2944940
H	-6.4569330	3.7627390	0.2509970
H	-6.3569180	2.7280810	1.6917650
H	-3.4875010	-1.1935370	-4.8073780
C	-3.5097870	-0.4695500	2.3932320
H	-5.4442710	0.0583290	1.6098610
H	-2.5183970	3.3745120	0.1208690
C	-2.5028250	-1.2115040	1.4963170
C	-4.2311390	-1.4446650	3.3295850
H	-2.9044530	0.2203060	2.9872410
O	-2.6057940	4.1894880	-0.4105570
N	-2.9643520	-1.7951850	0.3737290
O	-1.2983310	-1.2686590	1.8164020
H	-3.4907460	-1.9476030	3.9602400
H	-4.9097540	-0.8926920	3.9901310
H	-4.8067750	-2.2046020	2.7919230
H	-1.8178710	4.7178300	-0.2304870
C	-2.0529600	-2.5010110	-0.5188540
H	-3.9598900	-1.7637150	0.1450040
H	-0.9373160	-0.7357340	3.5603600
C	-1.0472860	-1.5325190	-1.1682080
C	-2.8106500	-3.3009210	-1.5847950
H	-1.4383750	-3.1845090	0.0759970
O	-0.9957490	-0.3001520	4.4325580
N	-1.5025480	-0.3314780	-1.5807830
O	0.1483190	-1.8666670	-1.3091480
H	-2.0892830	-3.8620910	-2.1884560
H	-3.4736990	-4.0264640	-1.1013970
H	-3.4081850	-2.6660670	-2.2471890
H	-0.1829100	-0.5237410	4.9031270
C	-0.5878060	0.6289760	-2.1919410
H	-2.4881180	-0.0927460	-1.4920050
H	0.4828620	-3.6598450	-1.0339010
C	0.4592180	1.1254140	-1.1776970
C	-1.3439380	1.8074080	-2.8166440
H	-0.0107060	0.1189600	-2.9677910
O	0.4303800	-4.5881040	-0.7269630
N	0.0531000	1.3805290	0.0795380
O	1.6454020	1.2898470	-1.5301140
H	-0.6254410	2.4591000	-3.3242200
H	-2.0495680	1.4413510	-3.5697350
H	-1.8931300	2.3966750	-2.0738530
H	1.2811920	-4.9910870	-0.9306620
C	1.0058570	1.8429370	1.0856840
H	-0.9290920	1.2732130	0.3382940
H	1.9177860	1.2578570	-3.3497580
C	2.0313020	0.7455220	1.4263290
C	0.2965930	2.3417200	2.3483140
H	1.5970920	2.6567240	0.6598520
O	1.8493530	1.0718670	-4.3097150
N	1.5921990	-0.5239700	1.5281700
O	3.2277110	1.0406030	1.6072140
H	1.0433570	2.7372660	3.0434010
H	-0.3847190	3.1606650	2.0927990
H	-0.2743110	1.5546080	2.8517870
H	2.5911610	1.5209760	-4.7271820
C	2.5297330	-1.6045700	1.8270770
H	0.6019140	-0.7409490	1.4103780
H	3.5752320	2.8669750	1.7933090
C	3.5267700	-1.8150570	0.6763050
C	1.7968040	-2.9083440	2.1620040
H	3.1486810	-1.3071490	2.6773910
O	3.4893490	3.8357920	1.7419380
N	3.0688640	-1.7376370	-0.5901180
O	4.7250590	-2.0605220	0.9182860
H	2.5338830	-3.6744190	2.4248930
H	1.1483550	-2.7594890	3.0324060
H	1.1867460	-3.2774450	1.3318600
H	4.3655060	4.1976680	1.9366410
C	3.9970030	-1.8869370	-1.7087140
H	2.0831330	-1.5668620	-0.7810660
H	5.1671610	-2.3644310	2.6809910
C	5.0290920	-0.7424520	-1.7365100
C	3.2527330	-1.9872170	-3.0449980
H	4.6008640	-2.7846800	-1.5458440
O	5.1711300	-2.4343870	3.6583190
N	4.5637100	0.5105200	-1.5335070
O	6.2275700	-0.9797700	-1.9493220
H	3.9801090	-2.1222620	-3.8519520
H	2.5855110	-2.8545000	-3.0389640
H	2.6621260	-1.0931050	-3.2634000
H	6.0935430	-2.3844920	3.9272000
C	5.4887700	1.6409220	-1.5560120
H	3.5763790	0.6861710	-1.3608370
C	6.5310510	1.5517950	-0.4295070
C	4.7459020	2.9794650	-1.5129880
H	6.0884220	1.5824390	-2.4699410
N	6.1076390	1.1675680	0.8011660
O	7.7120460	1.8468740	-0.6666560
H	5.4724010	3.7959000	-1.5474670
H	4.0872960	3.0728580	-2.3817170
H	4.1456240	3.0931020	-0.6057380
C	7.0489830	1.0727770	1.9138360
H	5.1250820	0.9668820	0.9668700
H	8.7943280	3.2453080	0.2389230
C	8.0163280	-0.1147030	1.7824420
C	6.3149840	0.9866420	3.2599210
H	7.6896680	1.9590420	1.9061810
O	9.1378720	3.9211730	0.8449650
N	7.6182800	-1.2027360	1.0933950
O	9.1216070	-0.0594980	2.3514350
H	7.0551770	0.9146840	4.0638020
H	5.7219750	1.8912740	3.4240340
H	5.6494860	0.1183690	3.3122480
H	9.6077140	3.4218530	1.5556890
H	10.6395890	4.5278730	-0.0898150
C	8.5249910	-2.3277430	0.8823480
H	6.6739390	-1.2476010	0.7177220
H	9.9218990	1.5674540	2.7437430
H	10.7680640	-0.8804060	2.4990670
O	10.3916970	2.4219660	2.7414180
O	11.3728850	4.7242160	-0.7063100
C	9.5895150	-2.0440110	-0.2004460
C	7.7479560	-3.6029500	0.5245420
H	9.0950630	-2.4942030	1.8006940
O	11.6627730	-1.2260560	2.3073480
H	11.2984790	2.1964280	2.4410740
H	11.9755870	3.9581100	-0.6657440
N	9.1753630	-1.4031190	-1.3131710
O	10.7497760	-2.4569610	-0.0368430
H	8.4568880	-4.4184630	0.3480760
H	7.0861840	-3.8899690	1.3487740
H	7.1391410	-3.4610530	-0.3733060
H	12.3821230	0.3329120	1.8171840
H	13.6314350	-1.6852910	2.6915170
H	11.5212410	-1.7886530	1.5194330
O	12.6806750	1.2624200	1.6768670
O	12.9313200	2.2820200	-0.8359710
C	10.0575280	-1.2041270	-2.4640210
H	8.1870690	-1.1714730	-1.4150740
H	12.8430730	-2.8486950	-0.1950890
O	14.5131900	-1.7890300	2.2955260
H	13.6433120	1.2544040	1.8957090
H	12.7322460	1.8389000	0.0261270
H	12.5778510	1.7024320	-1.5364110
H	14.7334960	1.8161350	-0.9227070
C	10.6677710	0.2103520	-2.5681190
H	10.9106220	-1.8721820	-2.3335150
C	9.3073730	-1.5393140	-3.7619080
O	13.8012500	-2.7435120	-0.0943750
H	14.3175170	-2.2059920	1.4068760
H	15.1026170	-0.3152140	2.0595380
O	15.3255860	0.6562340	1.9031300
O	11.8926120	0.3365440	-2.7693920
O	15.5275080	1.2390390	-0.8780700
N	9.8150870	1.2535310	-2.5533520
H	9.9553120	-1.3567800	-4.6259000
H	9.0107150	-2.5935150	-3.7678040
H	8.4064000	-0.9228050	-3.8656790
H	14.0623460	-2.0942790	-0.8101370
H	15.6119730	1.0397820	0.0745740
H	16.0033290	0.9001060	2.5441360
H	13.5426790	-0.5844940	-2.3472410
H	14.8765530	-0.1859400	-1.6275640
H	8.8990150	1.1461970	-2.1281240
C	10.2277160	2.6216140	-2.8658670
O	14.3657690	-0.9571490	-1.9838840
H	11.1440470	2.5823040	-3.4548330
H	9.4374780	3.0987990	-3.4581900
H	10.4168980	3.2357530	-1.9785740

