%nproc=24
%mem=64GB
#P PBE1PBE/6-31+G(d,p) opt freq  int=(grid=99590) scrf=(cpcm, solvent=water) EmpiricalDispersion=GD3

solv sp

0 1
O	11.3581200	-0.9564480	2.4502150
H	10.5014190	-0.5670040	2.7119810
H	11.1075210	-1.6088780	1.7624470
O	8.8023720	0.2710830	2.5112670
H	12.0793020	0.4630430	1.6335840
H	13.2755350	-1.5801800	2.6735790
O	10.3207130	-2.4683130	0.3898970
C	7.6728250	0.1475230	2.0029880
H	9.8302260	1.9058200	2.7693510
O	12.4371740	1.3369150	1.3496260
O	14.1171190	-1.7952410	2.2353430
C	9.1737100	-2.0286220	0.1844270
H	12.2208190	-2.9232900	0.0180500
C	6.6730430	1.3168070	2.0743820
N	7.2520550	-0.9929410	1.4208670
O	10.3827970	2.7002040	2.6621900
H	13.4041570	1.2679050	1.5240390
H	11.2134460	2.3717780	2.2533230
H	12.4455910	1.8036340	-0.3714080
H	13.8389850	-2.2722220	1.3998120
H	14.7742880	-0.4029680	1.8242900
C	8.1183190	-2.1571200	1.3030600
N	8.7818250	-1.4948340	-0.9879300
O	13.1906480	-2.9146560	-0.0050030
C	5.9003620	1.2558130	3.3984980
N	5.7450410	1.3362250	0.9481230
H	7.2936730	2.2189930	2.0473370
H	6.2723200	-1.0898130	1.1532870
H	9.5540030	3.5891570	1.3849460
O	15.0497280	0.5336060	1.5542820
O	12.6585790	2.1522990	-1.2695910
C	7.2861060	-3.4267640	1.0737630
H	8.6993930	-2.2635930	2.2238660
C	9.6753890	-1.4509250	-2.1448030
H	7.7960540	-1.2590620	-1.1201070
H	13.4276400	-2.3804770	-0.8146500
H	5.2733580	0.3588260	3.4425490
H	5.2560380	2.1347510	3.4992000
H	6.6053810	1.2408700	4.2341680
C	6.1875440	1.5811220	-0.3024280
H	4.7474270	1.2073570	1.1263840
O	9.0670110	3.9773130	0.6186080
H	15.2497500	0.6771040	-0.3060150
H	15.7669890	0.7984550	2.1431150
H	12.2290520	1.5530340	-1.9079580
H	11.7307300	3.9625080	-1.2080360
H	14.3981260	1.4383760	-1.3463200
H	6.5990970	-3.5832950	1.9107050
H	6.6935790	-3.3444220	0.1570710
H	7.9510800	-4.2915470	0.9914760
C	8.9917810	-2.0674270	-3.3774460
C	10.1975780	-0.0463790	-2.5137600
H	10.5614590	-2.0315570	-1.8855600
O	13.7421880	-1.4011990	-2.1455240
C	5.1506960	1.5887650	-1.4406470
O	7.3806890	1.8159680	-0.5527960
H	8.6158980	3.2309390	0.1925040
H	10.4366700	4.5409660	-0.5622720
O	15.1261870	0.7846240	-1.2706620
O	11.3646220	0.0659480	-2.9415690
O	11.1036170	4.7053490	-1.2604410
H	8.0555760	-1.5472300	-3.6066550
H	8.7685780	-3.1237940	-3.1945890
H	9.6559260	-1.9950950	-4.2441400
N	9.3258920	0.9737970	-2.4747690
H	12.9519860	-0.9819280	-2.5325540
H	14.3275570	-0.6483290	-1.8715610
C	4.3562260	2.9000330	-1.4344530
N	4.2499640	0.4445180	-1.3715620
H	5.7535410	1.5218000	-2.3527260
C	9.6377270	2.3019100	-3.0026550
H	8.4891590	0.9098430	-1.8978490
H	3.7530910	2.9837320	-0.5249810
H	3.6867910	2.9415730	-2.2998240
H	5.0452130	3.7484080	-1.4816270
C	4.7281080	-0.8143160	-1.4473690
H	3.2467230	0.6135990	-1.2843230
H	10.0105210	2.9960680	-2.2426230
H	8.7272650	2.7217760	-3.4429130
H	10.3992160	2.2002540	-3.7789330
C	3.7004290	-1.9558580	-1.3222270
O	5.9304430	-1.0679660	-1.6226400
C	2.9460990	-2.1584770	-2.6415030
N	2.7607820	-1.7207290	-0.2314400
H	4.3062130	-2.8404220	-1.0971860
H	2.3441910	-1.2771750	-2.8850180
H	2.2784100	-3.0231120	-2.5681690
H	3.6595450	-2.3350540	-3.4520670
C	3.2046730	-1.5948680	1.0385200
H	1.7644720	-1.6505800	-0.4425330
C	2.1510080	-1.2973090	2.1232350
O	4.3981310	-1.7247750	1.3465510
C	1.3801180	-2.5678550	2.4999210
N	1.2255780	-0.2496190	1.7074030
H	2.7396670	-0.9462480	2.9776240
H	0.7939640	-2.9323780	1.6503040
H	0.6956620	-2.3644800	3.3298980
H	2.0820530	-3.3486790	2.8076620
C	1.6733500	0.9928540	1.4252040
H	0.2303070	-0.4671230	1.6467810
C	0.6289540	2.0188810	0.9441140
O	2.8602510	1.3247760	1.5551220
C	-0.1563470	2.5898540	2.1305900
N	-0.2842120	1.4496530	-0.0413070
H	1.2251560	2.8084820	0.4743720
H	-0.7504260	1.8087050	2.6160280
H	-0.8342720	3.3807060	1.7932650
H	0.5376100	3.0134530	2.8626550
C	0.1790810	0.9727330	-1.2171750
H	-1.2828910	1.4278250	0.1675370
C	-0.8559650	0.3563080	-2.1782250
O	1.3736520	1.0307680	-1.5423530
C	-1.6409770	1.4510110	-2.9105980
N	-1.7714040	-0.5445850	-1.4867450
H	-0.2523470	-0.2145100	-2.8919770
H	-2.2402870	2.0367490	-2.2062010
H	-2.3140730	1.0051550	-3.6501260
H	-0.9474310	2.1206970	-3.4278480
C	-1.3097730	-1.6428500	-0.8507760
H	-2.7709020	-0.3397670	-1.5050280
C	-2.3487110	-2.5085460	-0.1107740
O	-0.1148320	-1.9719560	-0.8579520
C	-3.1087130	-3.4060260	-1.0942360
N	-3.2835800	-1.6977400	0.6617720
H	-1.7497180	-3.1216560	0.5711680
H	-3.7062870	-2.8048870	-1.7871750
H	-3.7803730	-4.0802240	-0.5527190
H	-2.3988110	-4.0077420	-1.6694630
C	-2.8430170	-0.8983830	1.6577550
H	-4.2787890	-1.7499260	0.4433280
C	-3.8985550	-0.0444690	2.3873400
O	-1.6537620	-0.8471780	2.0020320
C	-4.6708610	-0.8873850	3.4087800
N	-4.8219750	0.5940270	1.4561560
H	-3.3116580	0.7239780	2.9016960
H	-5.2598340	-1.6623810	2.9077100
H	-5.3519140	-0.2540360	3.9867320
H	-3.9695910	-1.3661810	4.0986450
C	-4.3714000	1.4674090	0.5287860
H	-5.8156130	0.3731060	1.5172000
C	-5.4148160	2.0552700	-0.4411740
O	-3.1834560	1.8103670	0.4510480
C	-6.2041840	3.1855350	0.2296800
N	-6.3251590	1.0342990	-0.9480260
H	-4.8179200	2.4536180	-1.2684570
H	-6.7957220	2.8017760	1.0673160
H	-6.8844080	3.6531810	-0.4896150
H	-5.5136390	3.9470810	0.6039230
C	-5.8580530	-0.0127640	-1.6632150
H	-7.3228340	1.1273900	-0.7594140
C	-6.8893350	-1.0621510	-2.1214450
O	-4.6637580	-0.1375270	-1.9677110
C	-7.6534770	-0.5708860	-3.3561050
N	-7.8204820	-1.4150260	-1.0542170
H	-6.2837030	-1.9374920	-2.3798070
H	-8.2599700	0.3079670	-3.1146030
H	-8.3176880	-1.3566100	-3.7301860
H	-6.9453130	-0.3056780	-4.1466480
C	-7.3697610	-1.9720780	0.0906860
H	-8.8198560	-1.2716990	-1.2058760
C	-8.4178180	-2.2997800	1.1730580
O	-6.1753100	-2.2374890	0.2845570
C	-9.1742850	-3.5866630	0.8226590
N	-9.3581730	-1.2011780	1.3738060
H	-7.8245190	-2.4474530	2.0820330
H	-9.7846770	-3.4490290	-0.0759890
H	-9.8296170	-3.8823030	1.6491700
H	-8.4624720	-4.3978940	0.6442020
C	-8.9213830	0.0228200	1.7426050
H	-10.3597830	-1.3826090	1.2752480
C	-9.9819570	1.1394550	1.8493370
O	-7.7339150	0.2700900	1.9908200
O	-12.2613850	-1.8525770	1.5892880
C	-10.7530970	1.0436280	3.1703220
N	-10.8967770	1.1411460	0.7110130
H	-9.3932500	2.0621270	1.8318900
H	-12.9022740	-1.1018090	1.5652190
H	-12.5444410	-2.4397680	2.3009450
H	-11.3549430	0.1302370	3.2105470
H	-11.4151190	1.9093250	3.2865480
H	-10.0483740	1.0366890	4.0069940
C	-10.4201450	1.3791820	-0.5338400
H	-11.8803900	0.9008740	0.8573980
O	-13.7228430	0.4164920	1.3941360
C	-11.4262910	1.3468610	-1.6998740
O	-9.2343200	1.6576470	-0.7519910
H	-14.0979830	0.8808340	2.1704490
H	-14.3482420	0.5269420	0.6382130
C	-12.2078560	2.6650280	-1.7703210
N	-12.3452000	0.2175470	-1.6444830
H	-10.7913350	1.2490050	-2.5867580
O	-14.7051700	1.7710900	3.6233300
O	-15.1609210	0.7169120	-0.8908740
H	-12.8160510	2.6965190	-2.6812370
H	-12.8672160	2.7818100	-0.9029820
H	-11.5115950	3.5081900	-1.7940550
C	-11.8844340	-1.0584480	-1.7166150
H	-13.3462300	0.3916720	-1.5368880
H	-14.1509820	2.4547580	4.0237720
H	-15.1136070	1.2991520	4.3617940
H	-15.7930540	0.0334290	-1.1978950
H	-15.5490140	1.5924320	-1.1035090
C	-12.9263960	-2.1586090	-1.6975620
O	-10.6728420	-1.3124450	-1.7758620
O	-16.7516030	-1.3307450	-1.8436450
O	-16.1919640	3.2015040	-1.5182340
H	-13.9473720	-1.7888790	-1.8306220
H	-12.8517280	-2.6665260	-0.7301880
H	-12.6876230	-2.8786640	-2.4853730
H	-17.0370790	-1.4205360	-2.7625720
H	-17.2985110	-1.9391430	-1.3293120
H	-15.8391210	3.7359510	-2.2422080
H	-16.5305730	3.8264380	-0.8632370

